.MODEL BF959 NPN(IS=10.2e-15 BF=78.00 NF=1.000 VAF=80.50 IKF=60.00m ISE=16.80p NE=2.000 BR=4.000 NR=1.000 VAR=12.00 IKR=90.00m ISC=0.000 NC=2.000 RB=2.060 IRB=0.000 RBM=0.000 RE=515.0m RC=206.0m CJE=1.740p VJE=1.100 MJE=500.0m TF=227.0p XTF=0.000 VTF=0.000 ITF=0.000 PTF=0.000 CJC=2.250p VJC=300.0m MJC=300.0m XCJC=1.000 TR=158.0n CJS=0.000 VJS=750.0m MJS=0.000 XTB=1.500 EG=1.110 XTI=3.000 KF=0.000 AF=1.000 FC=500.0m TNOM=27.00)

