.MODEL VN2210 NMOS (LEVEL=3 RS=0.02 NSUB=3.0E15 DELTA=1.0 KAPPA=1.20 TPG=1 CGDO=1.61E-10 RD=0.03 VTO=1.650 VMAX=5.0E6 ETA=0.053089 NFS=6.6E10 TOX=725E-10 LD=1.698E-9 UO=862.425 XJ=6.4666E-7 THETA=1.0E-5 CGSO=4.850E-9 L=4.0E-6 W=85E-3)

